2024_89_CemigReconfigurationCases/1_AlimsCemig/AXAU10/AXAU10CargaBT_Dez.dss
new load.3000112840M1 bus1=RML1050365264.1.2.3.0,Phases=3,kv=0.22,kW=2.12992,pf=0.92,Vminpu=0.92,Vmaxpu=1.5,model=8,zipv=[0.5,0,0.5,1,0,0,0],daily=COM3_2,status=variable
new load.3000112848M1 bus1=RML1050371599.1.2.3.0,Phases=3,kv=0.22,kW=0.06802,pf=0.92,Vminpu=0.92,Vmaxpu=1.5,model=8,zipv=[0.5,0,0.5,1,0,0,0],daily=COM1_4,status=variable
new load.3000112853M1 bus1=RML1050371599.1.2.3.0,Phases=3,kv=0.22,kW=0.08356,pf=0.92,Vminpu=0.92,Vmaxpu=1.5,model=8,zipv=[0.5,0,0.5,1,0,0,0],daily=COM1_4,status=variable
new load.3000112854M1 bus1=RML1050371599.1.2.3.0,Phases=3,kv=0.22,kW=1.09718,pf=0.92,Vminpu=0.92,Vmaxpu=1.5,model=8,zipv=[0.5,0,0.5,1,0,0,0],daily=COM2_2,status=variable
new load.3000112855M1 bus1=RML1050371599.1.2.3.0,Phases=3,kv=0.22,kW=0.53936,pf=0.92,Vminpu=0.92,Vmaxpu=1.5,model=8,zipv=[0.5,0,0.5,1,0,0,0],daily=COM2_2,status=variable
new load.3000112856M1 bus1=RML1050371599.1.2.3.0,Phases=3,kv=0.22,kW=1.10922,pf=0.92,Vminpu=0.92,Vmaxpu=1.5,model=8,zipv=[0.5,0,0.5,1,0,0,0],daily=COM3_2,status=variable
new load.3000112858M1 bus1=RML1050371599.1.2.3.0,Phases=3,kv=0.22,kW=0.56952,pf=0.92,Vminpu=0.92,Vmaxpu=1.5,model=8,zipv=[0.5,0,0.5,1,0,0,0],daily=RES1_2,status=variable
new load.3000112859M1 bus1=RML1050371599.1.2.3.0,Phases=3,kv=0.22,kW=0.90898,pf=0.92,Vminpu=0.92,Vmaxpu=1.5,model=8,zipv=[0.5,0,0.5,1,0,0,0],daily=RES2_2,status=variable
new load.3000112860M1 bus1=RML1050371599.1.2.3.0,Phases=3,kv=0.22,kW=1.93556,pf=0.92,Vminpu=0.92,Vmaxpu=1.5,model=8,zipv=[0.5,0,0.5,1,0,0,0],daily=RES4_3,status=variable
new load.3000112861M1 bus1=RML1050371599.1.2.3.0,Phases=3,kv=0.22,kW=0.4366,pf=0.92,Vminpu=0.92,Vmaxpu=1.5,model=8,zipv=[0.5,0,0.5,1,0,0,0],daily=RES2_2,status=variable
new load.3000112862M1 bus1=RML1050371599.1.2.3.0,Phases=3,kv=0.22,kW=1.47918,pf=0.92,Vminpu=0.92,Vmaxpu=1.5,model=8,zipv=[0.5,0,0.5,1,0,0,0],daily=RES3_2,status=variable
new load.3000112863M1 bus1=RML1050371599.1.2.3.0,Phases=3,kv=0.22,kW=0.52964,pf=0.92,Vminpu=0.92,Vmaxpu=1.5,model=8,zipv=[0.5,0,0.5,1,0,0,0],daily=RES2_2,status=variable
new load.3000112864M1 bus1=RML1050371599.1.2.3.0,Phases=3,kv=0.22,kW=0.7229,pf=0.92,Vminpu=0.92,Vmaxpu=1.5,model=8,zipv=[0.5,0,0.5,1,0,0,0],daily=RES2_2,status=variable
new load.3000112865M1 bus1=RML1050371599.1.2.3.0,Phases=3,kv=0.22,kW=0.50078,pf=0.92,Vminpu=0.92,Vmaxpu=1.5,model=8,zipv=[0.5,0,0.5,1,0,0,0],daily=RES1_2,status=variable
new load.3000112866M1 bus1=RML1050371599.1.2.3.0,Phases=3,kv=0.22,kW=0.0408,pf=0.92,Vminpu=0.92,Vmaxpu=1.5,model=8,zipv=[0.5,0,0.5,1,0,0,0],daily=COM1_4,status=variable
new load.3000112867M1 bus1=RML1050371599.1.2.3.0,Phases=3,kv=0.22,kW=0.19434,pf=0.92,Vminpu=0.92,Vmaxpu=1.5,model=8,zipv=[0.5,0,0.5,1,0,0,0],daily=COM1_4,status=variable
new load.3000112871M1 bus1=RML1050371648.1.2.3.0,Phases=3,kv=0.22,kW=0.85336,pf=0.92,Vminpu=0.92,Vmaxpu=1.5,model=8,zipv=[0.5,0,0.5,1,0,0,0],daily=COM2_2,status=variable
new load.3000112872M1 bus1=RML1050371655.1.2.0,Phases=2,kv=0.22,kW=3.29594,pf=0.92,Vminpu=0.92,Vmaxpu=1.5,model=8,zipv=[0.5,0,0.5,1,0,0,0],daily=COM3_2,status=variable
new load.3000112873M1 bus1=RML1050377276.1.2.3.0,Phases=3,kv=0.22,kW=4.84076,pf=0.92,Vminpu=0.92,Vmaxpu=1.5,model=8,zipv=[0.5,0,0.5,1,0,0,0],daily=COM4_3,status=variable
new load.3000112876M1 bus1=RML1050377290.1.2.3.0,Phases=3,kv=0.22,kW=2.2563,pf=0.92,Vminpu=0.92,Vmaxpu=1.5,model=8,zipv=[0.5,0,0.5,1,0,0,0],daily=RES5_4,status=variable
new load.3000112879M1 bus1=RML1050607772.1.2.3.0,Phases=3,kv=0.22,kW=2.38772,pf=0.92,Vminpu=0.92,Vmaxpu=1.5,model=8,zipv=[0.5,0,0.5,1,0,0,0],daily=RES4_3,status=variable
new load.3000112880M1 bus1=RML1050607751.1.2.3.0,Phases=3,kv=0.22,kW=0.274,pf=0.92,Vminpu=0.92,Vmaxpu=1.5,model=8,zipv=[0.5,0,0.5,1,0,0,0],daily=COM1_4,status=variable
new load.3000112881M1 bus1=RML1050607751.1.2.3.0,Phases=3,kv=0.22,kW=0.15546,pf=0.92,Vminpu=0.92,Vmaxpu=1.5,model=8,zipv=[0.5,0,0.5,1,0,0,0],daily=COM1_4,status=variable
new load.3000112883M1 bus1=RML1050607751.1.2.3.0,Phases=3,kv=0.22,kW=0.05636,pf=0.92,Vminpu=0.92,Vmaxpu=1.5,model=8,zipv=[0.5,0,0.5,1,0,0,0],daily=COM1_4,status=variable
new load.3000112885M1 bus1=RML1050377304.1.2.3.0,Phases=3,kv=0.22,kW=1.1094,pf=0.92,Vminpu=0.92,Vmaxpu=1.5,model=8,zipv=[0.5,0,0.5,1,0,0,0],daily=RES2_2,status=variable
new load.3000112886M1 bus1=RML1050377304.1.2.3.0,Phases=3,kv=0.22,kW=1.71396,pf=0.92,Vminpu=0.92,Vmaxpu=1.5,model=8,zipv=[0.5,0,0.5,1,0,0,0],daily=RES3_2,status=variable
new load.3000112887M1 bus1=RML1050377304.1.2.3.0,Phases=3,kv=0.22,kW=1.80788,pf=0.92,Vminpu=0.92,Vmaxpu=1.5,model=8,zipv=[0.5,0,0.5,1,0,0,0],daily=RES3_2,status=variable
new load.3000112888M1 bus1=RML1050377304.1.2.3.0,Phases=3,kv=0.22,kW=1.00204,pf=0.92,Vminpu=0.92,Vmaxpu=1.5,model=8,zipv=[0.5,0,0.5,1,0,0,0],daily=RES2_2,status=variable
new load.3000112889M1 bus1=RML1050377304.1.2.3.0,Phases=3,kv=0.22,kW=2.0149,pf=0.92,Vminpu=0.92,Vmaxpu=1.5,model=8,zipv=[0.5,0,0.5,1,0,0,0],daily=RES4_3,status=variable
new load.3000112890M1 bus1=RML1050377304.1.2.3.0,Phases=3,kv=0.22,kW=0.93046,pf=0.92,Vminpu=0.92,Vmaxpu=1.5,model=8,zipv=[0.5,0,0.5,1,0,0,0],daily=RES2_2,status=variable
new load.3000112892M1 bus1=RML1050377304.1.2.3.0,Phases=3,kv=0.22,kW=0.54396,pf=0.92,Vminpu=0.92,Vmaxpu=1.5,model=8,zipv=[0.5,0,0.5,1,0,0,0],daily=RES2_2,status=variable
new load.3000112893M1 bus1=RML1050377304.1.2.3.0,Phases=3,kv=0.22,kW=3.19906,pf=0.92,Vminpu=0.92,Vmaxpu=1.5,model=8,zipv=[0.5,0,0.5,1,0,0,0],daily=RES5_4,status=variable
new load.3000112895M1 bus1=RML1050377304.1.2.3.0,Phases=3,kv=0.22,kW=1.03124,pf=0.92,Vminpu=0.92,Vmaxpu=1.5,model=8,zipv=[0.5,0,0.5,1,0,0,0],daily=RES4_3,status=variable
new load.3000112896M1 bus1=RML1050377304.1.2.3.0,Phases=3,kv=0.22,kW=0.62984,pf=0.92,Vminpu=0.92,Vmaxpu=1.5,model=8,zipv=[0.5,0,0.5,1,0,0,0],daily=RES2_2,status=variable
new load.3000112897M1 bus1=RML1050377304.1.2.3.0,Phases=3,kv=0.22,kW=0.67996,pf=0.92,Vminpu=0.92,Vmaxpu=1.5,model=8,zipv=[0.5,0,0.5,1,0,0,0],daily=RES2_2,status=variable
new load.3000112898M1 bus1=RML1050377304.1.2.3.0,Phases=3,kv=0.22,kW=0.64416,pf=0.92,Vminpu=0.92,Vmaxpu=1.5,model=8,zipv=[0.5,0,0.5,1,0,0,0],daily=RES2_2,status=variable
new load.3000112899M1 bus1=RML1050377304.1.2.3.0,Phases=3,kv=0.22,kW=0.23566,pf=0.92,Vminpu=0.92,Vmaxpu=1.5,model=8,zipv=[0.5,0,0.5,1,0,0,0],daily=RES1_2,status=variable
new load.3000112900M1 bus1=RML1050377304.1.2.3.0,Phases=3,kv=0.22,kW=0.78732,pf=0.92,Vminpu=0.92,Vmaxpu=1.5,model=8,zipv=[0.5,0,0.5,1,0,0,0],daily=RES2_2,status=variable
new load.3000112901M1 bus1=RML1050377304.1.2.3.0,Phases=3,kv=0.22,kW=1.20244,pf=0.92,Vminpu=0.92,Vmaxpu=1.5,model=8,zipv=[0.5,0,0.5,1,0,0,0],daily=RES2_2,status=variable
new load.3000112903M1 bus1=RML1050607779.1.2.3.0,Phases=3,kv=0.22,kW=0.62186,pf=0.92,Vminpu=0.92,Vmaxpu=1.5,model=8,zipv=[0.5,0,0.5,1,0,0,0],daily=COM1_4,status=variable
new load.3000112909M1 bus1=RML1050381588.1.2.3.0,Phases=3,kv=0.22,kW=0.70662,pf=0.92,Vminpu=0.92,Vmaxpu=1.5,model=8,zipv=[0.5,0,0.5,1,0,0,0],daily=IND2_2,status=variable
new load.3000112910M1 bus1=RML1050381609.1.2.3.0,Phases=3,kv=0.22,kW=0.01964,pf=0.92,Vminpu=0.92,Vmaxpu=1.5,model=8,zipv=[0.5,0,0.5,1,0,0,0],daily=RES1_2,status=variable
new load.3000112911M1 bus1=RML1050381595.2.3.0,Phases=2,kv=0.22,kW=1.97014,pf=0.92,Vminpu=0.92,Vmaxpu=1.5,model=8,zipv=[0.5,0,0.5,1,0,0,0],daily=RES6_2,status=variable
new load.3000112914M1 bus1=RML1050381672.1.2.3.0,Phases=3,kv=0.22,kW=2.05504,pf=0.92,Vminpu=0.92,Vmaxpu=1.5,model=8,zipv=[0.5,0,0.5,1,0,0,0],daily=RES5_4,status=variable
new load.3000112915M1 bus1=RML1060831439.1.2.0,Phases=2,kv=0.22,kW=0.89468,pf=0.92,Vminpu=0.92,Vmaxpu=1.5,model=8,zipv=[0.5,0,0.5,1,0,0,0],daily=RES2_2,status=variable
new load.3000112917M1 bus1=RML1050381735.1.2.3.0,Phases=3,kv=0.22,kW=1.35396,pf=0.92,Vminpu=0.92,Vmaxpu=1.5,model=8,zipv=[0.5,0,0.5,1,0,0,0],daily=RES3_2,status=variable
new load.3000112919M1 bus1=RML1050381728.1.2.3.0,Phases=3,kv=0.22,kW=0.29732,pf=0.92,Vminpu=0.92,Vmaxpu=1.5,model=8,zipv=[0.5,0,0.5,1,0,0,0],daily=COM1_4,status=variable
new load.3000112920M1 bus1=RML1050381686.1.2.3.0,Phases=3,kv=0.22,kW=0.16518,pf=0.92,Vminpu=0.92,Vmaxpu=1.5,model=8,zipv=[0.5,0,0.5,1,0,0,0],daily=COM1_4,status=variable
new load.3000112921M1 bus1=RML1050381686.1.2.3.0,Phases=3,kv=0.22,kW=0.69426,pf=0.92,Vminpu=0.92,Vmaxpu=1.5,model=8,zipv=[0.5,0,0.5,1,0,0,0],daily=RES2_2,status=variable
new load.3000112922M1 bus1=RML1050381686.1.2.3.0,Phases=3,kv=0.22,kW=0.16518,pf=0.92,Vminpu=0.92,Vmaxpu=1.5,model=8,zipv=[0.5,0,0.5,1,0,0,0],daily=COM1_4,status=variable
new load.3000112923M1 bus1=RML1050381707.1.2.3.0,Phases=3,kv=0.22,kW=0.377,pf=0.92,Vminpu=0.92,Vmaxpu=1.5,model=8,zipv=[0.5,0,0.5,1,0,0,0],daily=COM1_4,status=variable
new load.3000112924M1 bus1=RML1050381707.1.2.3.0,Phases=3,kv=0.22,kW=1.38822,pf=0.92,Vminpu=0.92,Vmaxpu=1.5,model=8,zipv=[0.5,0,0.5,1,0,0,0],daily=RES4_3,status=variable
new load.3000112927M1 bus1=RML1050381903.3.0,Phases=1,kv=0.127,kW=0.80878,pf=0.92,Vminpu=0.92,Vmaxpu=1.5,model=8,zipv=[0.5,0,0.5,1,0,0,0],daily=RES2_2,status=variable
new load.3000112928M1 bus1=RML1050381896.1.3.0,Phases=2,kv=0.22,kW=0.69426,pf=0.92,Vminpu=0.92,Vmaxpu=1.5,model=8,zipv=[0.5,0,0.5,1,0,0,0],daily=RES2_2,status=variable
new load.3000112929M1 bus1=RML1050381889.1.3.0,Phases=2,kv=0.22,kW=2.60984,pf=0.92,Vminpu=0.92,Vmaxpu=1.5,model=8,zipv=[0.5,0,0.5,1,0,0,0],daily=RES4_3,status=variable
new load.3000112930M1 bus1=RML1050381910.2.3.0,Phases=2,kv=0.22,kW=1.43222,pf=0.92,Vminpu=0.92,Vmaxpu=1.5,model=8,zipv=[0.5,0,0.5,1,0,0,0],daily=RES3_2,status=variable
new load.3000112931M1 bus1=RML1050381917.2.0,Phases=1,kv=0.127,kW=1.52614,pf=0.92,Vminpu=0.92,Vmaxpu=1.5,model=8,zipv=[0.5,0,0.5,1,0,0,0],daily=RES3_2,status=variable
new load.3000112998M1 bus1=RML1050381924.1.2.3.0,Phases=3,kv=0.22,kW=0.70858,pf=0.92,Vminpu=0.92,Vmaxpu=1.5,model=8,zipv=[0.5,0,0.5,1,0,0,0],daily=RES2_2,status=variable
new load.3000112999M1 bus1=RML1050381924.1.2.3.0,Phases=3,kv=0.22,kW=0.3006,pf=0.92,Vminpu=0.92,Vmaxpu=1.5,model=8,zipv=[0.5,0,0.5,1,0,0,0],daily=RES2_2,status=variable
new load.3000113000M1 bus1=RML1050381882.1.2.3.0,Phases=3,kv=0.22,kW=3.78374,pf=0.92,Vminpu=0.92,Vmaxpu=1.5,model=8,zipv=[0.5,0,0.5,1,0,0,0],daily=COM3_2,status=variable
new load.3000113003M1 bus1=RML1050381826.1.2.3.0,Phases=3,kv=0.22,kW=1.75906,pf=0.92,Vminpu=0.92,Vmaxpu=1.5,model=8,zipv=[0.5,0,0.5,1,0,0,0],daily=COM3_2,status=variable
new load.3000113005M1 bus1=RML1050381812.3.0,Phases=1,kv=0.127,kW=0.26562,pf=0.92,Vminpu=0.92,Vmaxpu=1.5,model=8,zipv=[0.5,0,0.5,1,0,0,0],daily=COM3_2,status=variable
new load.3000113006M1 bus1=RML1056750251.1.2.3.0,Phases=3,kv=0.22,kW=0.27152,pf=0.92,Vminpu=0.92,Vmaxpu=1.5,model=8,zipv=[0.5,0,0.5,1,0,0,0],daily=COM2_2,status=variable
new load.3000113009M1 bus1=RML1050381749.1.3.0,Phases=2,kv=0.22,kW=0.25652,pf=0.92,Vminpu=0.92,Vmaxpu=1.5,model=8,zipv=[0.5,0,0.5,1,0,0,0],daily=COM1_4,status=variable
new load.3000113010M1 bus1=RML1050381742.1.2.3.0,Phases=3,kv=0.22,kW=1.95658,pf=0.92,Vminpu=0.92,Vmaxpu=1.5,model=8,zipv=[0.5,0,0.5,1,0,0,0],daily=RES3_2,status=variable
new load.3000113013M1 bus1=RML1050381581.2.3.0,Phases=2,kv=0.22,kW=0.5966,pf=0.92,Vminpu=0.92,Vmaxpu=1.5,model=8,zipv=[0.5,0,0.5,1,0,0,0],daily=COM1_4,status=variable
new load.3000113014M1 bus1=RML1050381602.1.2.0,Phases=2,kv=0.22,kW=0.71114,pf=0.92,Vminpu=0.92,Vmaxpu=1.5,model=8,zipv=[0.5,0,0.5,1,0,0,0],daily=COM2_2,status=variable
new load.3000113015M1 bus1=RML1050381616.1.2.3.0,Phases=3,kv=0.22,kW=28.42618,pf=0.92,Vminpu=0.92,Vmaxpu=1.5,model=8,zipv=[0.5,0,0.5,1,0,0,0],daily=COM4_3,status=variable
new load.3000113016M1 bus1=RML1050377318.1.2.3.0,Phases=3,kv=0.22,kW=3.0875,pf=0.92,Vminpu=0.92,Vmaxpu=1.5,model=8,zipv=[0.5,0,0.5,1,0,0,0],daily=RES6_2,status=variable
new load.3000113017M1 bus1=RML1050377339.1.2.3.0,Phases=3,kv=0.22,kW=0.04664,pf=0.92,Vminpu=0.92,Vmaxpu=1.5,model=8,zipv=[0.5,0,0.5,1,0,0,0],daily=COM1_4,status=variable
new load.3000113019M1 bus1=RML1050377346.1.2.3.0,Phases=3,kv=0.22,kW=0.65132,pf=0.92,Vminpu=0.92,Vmaxpu=1.5,model=8,zipv=[0.5,0,0.5,1,0,0,0],daily=RES2_2,status=variable
new load.3000113020M1 bus1=RML1050377346.1.2.3.0,Phases=3,kv=0.22,kW=1.08786,pf=0.92,Vminpu=0.92,Vmaxpu=1.5,model=8,zipv=[0.5,0,0.5,1,0,0,0],daily=RES3_2,status=variable
new load.3000113021M1 bus1=RML1050377339.1.2.3.0,Phases=3,kv=0.22,kW=3.38614,pf=0.92,Vminpu=0.92,Vmaxpu=1.5,model=8,zipv=[0.5,0,0.5,1,0,0,0],daily=COM3_2,status=variable
new load.3000113024M1 bus1=RML1050371627.1.2.0,Phases=2,kv=0.22,kW=1.27126,pf=0.92,Vminpu=0.92,Vmaxpu=1.5,model=8,zipv=[0.5,0,0.5,1,0,0,0],daily=COM3_2,status=variable
new load.3000113025M1 bus1=RML1050371627.1.2.0,Phases=2,kv=0.22,kW=0.05636,pf=0.92,Vminpu=0.92,Vmaxpu=1.5,model=8,zipv=[0.5,0,0.5,1,0,0,0],daily=COM1_4,status=variable
new load.3000113026M1 bus1=RML1050371627.1.2.0,Phases=2,kv=0.22,kW=2.25354,pf=0.92,Vminpu=0.92,Vmaxpu=1.5,model=8,zipv=[0.5,0,0.5,1,0,0,0],daily=COM3_2,status=variable
new load.3000113027M1 bus1=RML1050371634.2.0,Phases=1,kv=0.127,kW=0.67238,pf=0.92,Vminpu=0.92,Vmaxpu=1.5,model=8,zipv=[0.5,0,0.5,1,0,0,0],daily=COM1_4,status=variable
new load.3000113028M1 bus1=RML1050371613.1.2.3.0,Phases=3,kv=0.22,kW=0.29538,pf=0.92,Vminpu=0.92,Vmaxpu=1.5,model=8,zipv=[0.5,0,0.5,1,0,0,0],daily=COM1_4,status=variable
new load.3000113030M1 bus1=RML1050371620.1.3.0,Phases=2,kv=0.22,kW=1.13782,pf=0.92,Vminpu=0.92,Vmaxpu=1.5,model=8,zipv=[0.5,0,0.5,1,0,0,0],daily=COM2_2,status=variable
new load.3000113032M1 bus1=RML1050545857.1.2.3.0,Phases=3,kv=0.22,kW=0.5368,pf=0.92,Vminpu=0.92,Vmaxpu=1.5,model=8,zipv=[0.5,0,0.5,1,0,0,0],daily=RES2_2,status=variable
new load.3000113033M1 bus1=RML1050545857.1.2.3.0,Phases=3,kv=0.22,kW=0.12884,pf=0.92,Vminpu=0.92,Vmaxpu=1.5,model=8,zipv=[0.5,0,0.5,1,0,0,0],daily=RES2_2,status=variable
new load.3000113034M1 bus1=RML1050545864.1.2.0,Phases=2,kv=0.22,kW=1.45366,pf=0.92,Vminpu=0.92,Vmaxpu=1.5,model=8,zipv=[0.5,0,0.5,1,0,0,0],daily=COM2_2,status=variable
new load.3000113035M1 bus1=RML1050365292.1.2.3.0,Phases=3,kv=0.22,kW=2.05474,pf=0.92,Vminpu=0.92,Vmaxpu=1.5,model=8,zipv=[0.5,0,0.5,1,0,0,0],daily=COM3_2,status=variable
new load.3000113037M1 bus1=RML1050365278.1.2.0,Phases=2,kv=0.22,kW=0.99744,pf=0.92,Vminpu=0.92,Vmaxpu=1.5,model=8,zipv=[0.5,0,0.5,1,0,0,0],daily=COM2_2,status=variable
new load.3000113038M1 bus1=RML1050365278.1.2.0,Phases=2,kv=0.22,kW=0.2876,pf=0.92,Vminpu=0.92,Vmaxpu=1.5,model=8,zipv=[0.5,0,0.5,1,0,0,0],daily=COM1_4,status=variable
new load.3000113039M1 bus1=RML1050365257.1.2.3.0,Phases=3,kv=0.22,kW=9.10622,pf=0.92,Vminpu=0.92,Vmaxpu=1.5,model=8,zipv=[0.5,0,0.5,1,0,0,0],daily=COM4_3,status=variable
new load.3000113043M1 bus1=RML1050355765.1.2.3.0,Phases=3,kv=0.22,kW=0.13408,pf=0.92,Vminpu=0.92,Vmaxpu=1.5,model=8,zipv=[0.5,0,0.5,1,0,0,0],daily=COM1_4,status=variable
new load.3000113044M1 bus1=RML1050355779.1.2.3.0,Phases=3,kv=0.22,kW=0.55962,pf=0.92,Vminpu=0.92,Vmaxpu=1.5,model=8,zipv=[0.5,0,0.5,1,0,0,0],daily=COM3_2,status=variable
new load.3000113045M1 bus1=RML1050359223.1.2.3.0,Phases=3,kv=0.22,kW=1.48138,pf=0.92,Vminpu=0.92,Vmaxpu=1.5,model=8,zipv=[0.5,0,0.5,1,0,0,0],daily=COM2_2,status=variable
new load.3000113053M1 bus1=RML1050359279.1.2.3.0,Phases=3,kv=0.22,kW=9.2908,pf=0.92,Vminpu=0.92,Vmaxpu=1.5,model=8,zipv=[0.5,0,0.5,1,0,0,0],daily=COM4_3,status=variable
new load.3000113055M1 bus1=RML1050359272.1.2.3.0,Phases=3,kv=0.22,kW=1.1038,pf=0.92,Vminpu=0.92,Vmaxpu=1.5,model=8,zipv=[0.5,0,0.5,1,0,0,0],daily=COM1_4,status=variable
new load.3000113056M1 bus1=RML1050359272.1.2.3.0,Phases=3,kv=0.22,kW=2.01266,pf=0.92,Vminpu=0.92,Vmaxpu=1.5,model=8,zipv=[0.5,0,0.5,1,0,0,0],daily=RES5_4,status=variable
new load.3000113059M1 bus1=RML1050359272.1.2.3.0,Phases=3,kv=0.22,kW=0.00194,pf=0.92,Vminpu=0.92,Vmaxpu=1.5,model=8,zipv=[0.5,0,0.5,1,0,0,0],daily=COM1_4,status=variable
new load.3000113064M1 bus1=RML1050359300.3.0,Phases=1,kv=0.127,kW=0.28566,pf=0.92,Vminpu=0.92,Vmaxpu=1.5,model=8,zipv=[0.5,0,0.5,1,0,0,0],daily=COM1_4,status=variable
new load.3000113065M1 bus1=RML1050359307.1.2.3.0,Phases=3,kv=0.22,kW=13.22864,pf=0.92,Vminpu=0.92,Vmaxpu=1.5,model=8,zipv=[0.5,0,0.5,1,0,0,0],daily=COM4_3,status=variable
new load.3000113067M1 bus1=RML1050365187.1.2.3.0,Phases=3,kv=0.22,kW=0.4664,pf=0.92,Vminpu=0.92,Vmaxpu=1.5,model=8,zipv=[0.5,0,0.5,1,0,0,0],daily=COM1_4,status=variable
new load.3000113069M1 bus1=RML1050365194.1.2.3.0,Phases=3,kv=0.22,kW=0.10688,pf=0.92,Vminpu=0.92,Vmaxpu=1.5,model=8,zipv=[0.5,0,0.5,1,0,0,0],daily=COM1_4,status=variable
new load.3000113070M1 bus1=RML1050365194.1.2.3.0,Phases=3,kv=0.22,kW=0.8238,pf=0.92,Vminpu=0.92,Vmaxpu=1.5,model=8,zipv=[0.5,0,0.5,1,0,0,0],daily=COM2_2,status=variable
new load.3000113071M1 bus1=RML1050365215.1.2.0,Phases=2,kv=0.22,kW=0.39838,pf=0.92,Vminpu=0.92,Vmaxpu=1.5,model=8,zipv=[0.5,0,0.5,1,0,0,0],daily=COM1_4,status=variable
new load.3000113073M1 bus1=RML1050364865.1.2.3.0,Phases=3,kv=0.22,kW=1.66886,pf=0.92,Vminpu=0.92,Vmaxpu=1.5,model=8,zipv=[0.5,0,0.5,1,0,0,0],daily=COM3_2,status=variable
new load.3000113075M1 bus1=RML1050364816.1.2.3.0,Phases=3,kv=0.22,kW=0.90324,pf=0.92,Vminpu=0.92,Vmaxpu=1.5,model=8,zipv=[0.5,0,0.5,1,0,0,0],daily=COM2_2,status=variable
new load.3000113076M1 bus1=RML1050364816.1.2.3.0,Phases=3,kv=0.22,kW=2.23682,pf=0.92,Vminpu=0.92,Vmaxpu=1.5,model=8,zipv=[0.5,0,0.5,1,0,0,0],daily=COM3_2,status=variable
new load.3000113077M1 bus1=RML1050364802.3.0,Phases=1,kv=0.127,kW=0.79426,pf=0.92,Vminpu=0.92,Vmaxpu=1.5,model=8,zipv=[0.5,0,0.5,1,0,0,0],daily=COM2_2,status=variable
new load.3000113078M1 bus1=RML1050364795.1.2.3.0,Phases=3,kv=0.22,kW=0.35562,pf=0.92,Vminpu=0.92,Vmaxpu=1.5,model=8,zipv=[0.5,0,0.5,1,0,0,0],daily=COM1_4,status=variable
new load.3000113080M1 bus1=RML1050364795.1.2.3.0,Phases=3,kv=0.22,kW=0.20016,pf=0.92,Vminpu=0.92,Vmaxpu=1.5,model=8,zipv=[0.5,0,0.5,1,0,0,0],daily=COM1_4,status=variable
new load.3000113082M1 bus1=RML1050364795.1.2.3.0,Phases=3,kv=0.22,kW=0.03692,pf=0.92,Vminpu=0.92,Vmaxpu=1.5,model=8,zipv=[0.5,0,0.5,1,0,0,0],daily=COM1_4,status=variable
new load.3000113084M1 bus1=RML1050364795.1.2.3.0,Phases=3,kv=0.22,kW=0.0719,pf=0.92,Vminpu=0.92,Vmaxpu=1.5,model=8,zipv=[0.5,0,0.5,1,0,0,0],daily=COM1_4,status=variable
new load.3000113085M1 bus1=RML1050364795.1.2.3.0,Phases=3,kv=0.22,kW=0.02526,pf=0.92,Vminpu=0.92,Vmaxpu=1.5,model=8,zipv=[0.5,0,0.5,1,0,0,0],daily=COM1_4,status=variable
new load.3000113090M1 bus1=RML1050364788.1.2.3.0,Phases=3,kv=0.22,kW=1.18954,pf=0.92,Vminpu=0.92,Vmaxpu=1.5,model=8,zipv=[0.5,0,0.5,1,0,0,0],daily=COM2_2,status=variable
new load.3000113091M1 bus1=RML1050364823.1.2.3.0,Phases=3,kv=0.22,kW=0.27012,pf=0.92,Vminpu=0.92,Vmaxpu=1.5,model=8,zipv=[0.5,0,0.5,1,0,0,0],daily=COM1_4,status=variable
new load.3000113092M1 bus1=RML1050364781.1.2.3.0,Phases=3,kv=0.22,kW=2.98522,pf=0.92,Vminpu=0.92,Vmaxpu=1.5,model=8,zipv=[0.5,0,0.5,1,0,0,0],daily=COM3_2,status=variable
new load.3000113093M1 bus1=RML1050364809.3.0,Phases=1,kv=0.127,kW=0.1613,pf=0.92,Vminpu=0.92,Vmaxpu=1.5,model=8,zipv=[0.5,0,0.5,1,0,0,0],daily=COM1_4,status=variable
new load.3000113094M1 bus1=RML1050365236.1.2.3.0,Phases=3,kv=0.22,kW=0.81272,pf=0.92,Vminpu=0.92,Vmaxpu=1.5,model=8,zipv=[0.5,0,0.5,1,0,0,0],daily=COM2_2,status=variable
new load.3000113095M1 bus1=RML1050365208.1.2.3.0,Phases=3,kv=0.22,kW=0.90042,pf=0.92,Vminpu=0.92,Vmaxpu=1.5,model=8,zipv=[0.5,0,0.5,1,0,0,0],daily=COM3_2,status=variable
new load.3000113096M1 bus1=RML1050365173.1.2.3.0,Phases=3,kv=0.22,kW=5.12016,pf=0.92,Vminpu=0.92,Vmaxpu=1.5,model=8,zipv=[0.5,0,0.5,1,0,0,0],daily=COM3_2,status=variable
new load.3000113102M1 bus1=RML1050359293.1.2.3.0,Phases=3,kv=0.22,kW=0.31092,pf=0.92,Vminpu=0.92,Vmaxpu=1.5,model=8,zipv=[0.5,0,0.5,1,0,0,0],daily=COM1_4,status=variable
new load.3000113107M1 bus1=RML1050359230.1.2.3.0,Phases=3,kv=0.22,kW=20.0583,pf=0.92,Vminpu=0.92,Vmaxpu=1.5,model=8,zipv=[0.5,0,0.5,1,0,0,0],daily=COM4_3,status=variable
new load.3000113109M1 bus1=RML1050357949.1.2.3.0,Phases=3,kv=0.22,kW=0.00388,pf=0.92,Vminpu=0.92,Vmaxpu=1.5,model=8,zipv=[0.5,0,0.5,1,0,0,0],daily=COM1_4,status=variable
new load.3000113110M1 bus1=RML1050357949.1.2.3.0,Phases=3,kv=0.22,kW=0.0311,pf=0.92,Vminpu=0.92,Vmaxpu=1.5,model=8,zipv=[0.5,0,0.5,1,0,0,0],daily=COM1_4,status=variable
new load.3000113112M1 bus1=RML1050357949.1.2.3.0,Phases=3,kv=0.22,kW=0.03498,pf=0.92,Vminpu=0.92,Vmaxpu=1.5,model=8,zipv=[0.5,0,0.5,1,0,0,0],daily=COM1_4,status=variable
new load.3000113114M1 bus1=RML1050357949.1.2.3.0,Phases=3,kv=0.22,kW=4.88294,pf=0.92,Vminpu=0.92,Vmaxpu=1.5,model=8,zipv=[0.5,0,0.5,1,0,0,0],daily=COM3_2,status=variable
new load.3000113116M1 bus1=RML1050357949.1.2.3.0,Phases=3,kv=0.22,kW=0.06024,pf=0.92,Vminpu=0.92,Vmaxpu=1.5,model=8,zipv=[0.5,0,0.5,1,0,0,0],daily=COM1_4,status=variable
new load.3000113119M1 bus1=RML1050357949.1.2.3.0,Phases=3,kv=0.22,kW=0.16324,pf=0.92,Vminpu=0.92,Vmaxpu=1.5,model=8,zipv=[0.5,0,0.5,1,0,0,0],daily=COM1_4,status=variable
new load.3000113122M1 bus1=RML1050357949.1.2.3.0,Phases=3,kv=0.22,kW=0.2196,pf=0.92,Vminpu=0.92,Vmaxpu=1.5,model=8,zipv=[0.5,0,0.5,1,0,0,0],daily=COM1_4,status=variable
new load.3000113123M1 bus1=RML1050357949.1.2.3.0,Phases=3,kv=0.22,kW=0.06412,pf=0.92,Vminpu=0.92,Vmaxpu=1.5,model=8,zipv=[0.5,0,0.5,1,0,0,0],daily=COM1_4,status=variable
new load.3000113124M1 bus1=RML1050357949.1.2.3.0,Phases=3,kv=0.22,kW=0.35952,pf=0.92,Vminpu=0.92,Vmaxpu=1.5,model=8,zipv=[0.5,0,0.5,1,0,0,0],daily=COM1_4,status=variable
new load.3000113126M1 bus1=RML1050357949.1.2.3.0,Phases=3,kv=0.22,kW=0.1749,pf=0.92,Vminpu=0.92,Vmaxpu=1.5,model=8,zipv=[0.5,0,0.5,1,0,0,0],daily=COM1_4,status=variable
new load.3000113127M1 bus1=RML1050357949.1.2.3.0,Phases=3,kv=0.22,kW=0.06608,pf=0.92,Vminpu=0.92,Vmaxpu=1.5,model=8,zipv=[0.5,0,0.5,1,0,0,0],daily=COM1_4,status=variable
new load.3000113128M1 bus1=RML1050357949.1.2.3.0,Phases=3,kv=0.22,kW=0.33814,pf=0.92,Vminpu=0.92,Vmaxpu=1.5,model=8,zipv=[0.5,0,0.5,1,0,0,0],daily=COM1_4,status=variable
new load.3000113131M1 bus1=RML1050357949.1.2.3.0,Phases=3,kv=0.22,kW=0.0855,pf=0.92,Vminpu=0.92,Vmaxpu=1.5,model=8,zipv=[0.5,0,0.5,1,0,0,0],daily=COM1_4,status=variable
new load.3000113134M1 bus1=RML1050357949.1.2.3.0,Phases=3,kv=0.22,kW=0.02332,pf=0.92,Vminpu=0.92,Vmaxpu=1.5,model=8,zipv=[0.5,0,0.5,1,0,0,0],daily=COM1_4,status=variable
new load.3000113136M1 bus1=RML1050357949.1.2.3.0,Phases=3,kv=0.22,kW=0.2604,pf=0.92,Vminpu=0.92,Vmaxpu=1.5,model=8,zipv=[0.5,0,0.5,1,0,0,0],daily=COM1_4,status=variable
new load.3000113137M1 bus1=RML1050357949.1.2.3.0,Phases=3,kv=0.22,kW=0.103,pf=0.92,Vminpu=0.92,Vmaxpu=1.5,model=8,zipv=[0.5,0,0.5,1,0,0,0],daily=COM1_4,status=variable
new load.3000113138M1 bus1=RML1050357949.1.2.3.0,Phases=3,kv=0.22,kW=0.23708,pf=0.92,Vminpu=0.92,Vmaxpu=1.5,model=8,zipv=[0.5,0,0.5,1,0,0,0],daily=COM1_4,status=variable
new load.3000113139M1 bus1=RML1050357949.1.2.3.0,Phases=3,kv=0.22,kW=0.00972,pf=0.92,Vminpu=0.92,Vmaxpu=1.5,model=8,zipv=[0.5,0,0.5,1,0,0,0],daily=COM1_4,status=variable
new load.3000113142M1 bus1=RML1050357949.1.2.3.0,Phases=3,kv=0.22,kW=0.10106,pf=0.92,Vminpu=0.92,Vmaxpu=1.5,model=8,zipv=[0.5,0,0.5,1,0,0,0],daily=COM1_4,status=variable
new load.3000113144M1 bus1=RML1050357949.1.2.3.0,Phases=3,kv=0.22,kW=0.25846,pf=0.92,Vminpu=0.92,Vmaxpu=1.5,model=8,zipv=[0.5,0,0.5,1,0,0,0],daily=COM1_4,status=variable
new load.3000113145M1 bus1=RML1050357949.1.2.3.0,Phases=3,kv=0.22,kW=0.19628,pf=0.92,Vminpu=0.92,Vmaxpu=1.5,model=8,zipv=[0.5,0,0.5,1,0,0,0],daily=COM1_4,status=variable
new load.3000113146M1 bus1=RML1050357949.1.2.3.0,Phases=3,kv=0.22,kW=0.19238,pf=0.92,Vminpu=0.92,Vmaxpu=1.5,model=8,zipv=[0.5,0,0.5,1,0,0,0],daily=COM1_4,status=variable
new load.3000113147M1 bus1=RML1050357949.1.2.3.0,Phases=3,kv=0.22,kW=0.08162,pf=0.92,Vminpu=0.92,Vmaxpu=1.5,model=8,zipv=[0.5,0,0.5,1,0,0,0],daily=COM1_4,status=variable
new load.3000113149M1 bus1=RML1050357949.1.2.3.0,Phases=3,kv=0.22,kW=0.10882,pf=0.92,Vminpu=0.92,Vmaxpu=1.5,model=8,zipv=[0.5,0,0.5,1,0,0,0],daily=COM1_4,status=variable
new load.3000113150M1 bus1=RML1050357949.1.2.3.0,Phases=3,kv=0.22,kW=0.02332,pf=0.92,Vminpu=0.92,Vmaxpu=1.5,model=8,zipv=[0.5,0,0.5,1,0,0,0],daily=COM1_4,status=variable
new load.3000113153M1 bus1=RML1050357949.1.2.3.0,Phases=3,kv=0.22,kW=0.0894,pf=0.92,Vminpu=0.92,Vmaxpu=1.5,model=8,zipv=[0.5,0,0.5,1,0,0,0],daily=COM1_4,status=variable
new load.3000113154M1 bus1=RML1050357949.1.2.3.0,Phases=3,kv=0.22,kW=0.0272,pf=0.92,Vminpu=0.92,Vmaxpu=1.5,model=8,zipv=[0.5,0,0.5,1,0,0,0],daily=COM1_4,status=variable
new load.3000113155M1 bus1=RML1050357949.1.2.3.0,Phases=3,kv=0.22,kW=0.25846,pf=0.92,Vminpu=0.92,Vmaxpu=1.5,model=8,zipv=[0.5,0,0.5,1,0,0,0],daily=COM1_4,status=variable
new load.3000113157M1 bus1=RML1050357949.1.2.3.0,Phases=3,kv=0.22,kW=0.04276,pf=0.92,Vminpu=0.92,Vmaxpu=1.5,model=8,zipv=[0.5,0,0.5,1,0,0,0],daily=COM1_4,status=variable
new load.3000113158M1 bus1=RML1050357949.1.2.3.0,Phases=3,kv=0.22,kW=0.2196,pf=0.92,Vminpu=0.92,Vmaxpu=1.5,model=8,zipv=[0.5,0,0.5,1,0,0,0],daily=COM1_4,status=variable
new load.3000113159M1 bus1=RML1050357949.1.2.3.0,Phases=3,kv=0.22,kW=0.19628,pf=0.92,Vminpu=0.92,Vmaxpu=1.5,model=8,zipv=[0.5,0,0.5,1,0,0,0],daily=COM1_4,status=variable
new load.3000113160M1 bus1=RML1050357949.1.2.3.0,Phases=3,kv=0.22,kW=0.94572,pf=0.92,Vminpu=0.92,Vmaxpu=1.5,model=8,zipv=[0.5,0,0.5,1,0,0,0],daily=COM2_2,status=variable
new load.3000113161M1 bus1=RML1050357949.1.2.3.0,Phases=3,kv=0.22,kW=0.06996,pf=0.92,Vminpu=0.92,Vmaxpu=1.5,model=8,zipv=[0.5,0,0.5,1,0,0,0],daily=COM1_4,status=variable
new load.3000113163M1 bus1=RML1050357949.1.2.3.0,Phases=3,kv=0.22,kW=0.09134,pf=0.92,Vminpu=0.92,Vmaxpu=1.5,model=8,zipv=[0.5,0,0.5,1,0,0,0],daily=COM1_4,status=variable
new load.3000113164M1 bus1=RML1050357949.1.2.3.0,Phases=3,kv=0.22,kW=0.09522,pf=0.92,Vminpu=0.92,Vmaxpu=1.5,model=8,zipv=[0.5,0,0.5,1,0,0,0],daily=COM1_4,status=variable
new load.3000113165M1 bus1=RML1050357949.1.2.3.0,Phases=3,kv=0.22,kW=0.03692,pf=0.92,Vminpu=0.92,Vmaxpu=1.5,model=8,zipv=[0.5,0,0.5,1,0,0,0],daily=COM1_4,status=variable
new load.3000113166M1 bus1=RML1050357949.1.2.3.0,Phases=3,kv=0.22,kW=0.00972,pf=0.92,Vminpu=0.92,Vmaxpu=1.5,model=8,zipv=[0.5,0,0.5,1,0,0,0],daily=COM1_4,status=variable
new load.3000113167M1 bus1=RML1050357949.1.2.3.0,Phases=3,kv=0.22,kW=0.00972,pf=0.92,Vminpu=0.92,Vmaxpu=1.5,model=8,zipv=[0.5,0,0.5,1,0,0,0],daily=COM1_4,status=variable
new load.3000113168M1 bus1=RML1050357949.1.2.3.0,Phases=3,kv=0.22,kW=0.00582,pf=0.92,Vminpu=0.92,Vmaxpu=1.5,model=8,zipv=[0.5,0,0.5,1,0,0,0],daily=COM1_4,status=variable
new load.3000113169M1 bus1=RML1050357949.1.2.3.0,Phases=3,kv=0.22,kW=0.10494,pf=0.92,Vminpu=0.92,Vmaxpu=1.5,model=8,zipv=[0.5,0,0.5,1,0,0,0],daily=COM1_4,status=variable
new load.3000113170M1 bus1=RML1050357949.1.2.3.0,Phases=3,kv=0.22,kW=0.10106,pf=0.92,Vminpu=0.92,Vmaxpu=1.5,model=8,zipv=[0.5,0,0.5,1,0,0,0],daily=COM1_4,status=variable
new load.3000113171M1 bus1=RML1050357949.1.2.3.0,Phases=3,kv=0.22,kW=0.0136,pf=0.92,Vminpu=0.92,Vmaxpu=1.5,model=8,zipv=[0.5,0,0.5,1,0,0,0],daily=COM1_4,status=variable
new load.3000113173M1 bus1=RML1050357949.1.2.3.0,Phases=3,kv=0.22,kW=0.19044,pf=0.92,Vminpu=0.92,Vmaxpu=1.5,model=8,zipv=[0.5,0,0.5,1,0,0,0],daily=COM1_4,status=variable
new load.3000113178M1 bus1=RML1050357949.1.2.3.0,Phases=3,kv=0.22,kW=0.01748,pf=0.92,Vminpu=0.92,Vmaxpu=1.5,model=8,zipv=[0.5,0,0.5,1,0,0,0],daily=COM1_4,status=variable
new load.3000113179M1 bus1=RML1050357949.1.2.3.0,Phases=3,kv=0.22,kW=0.13214,pf=0.92,Vminpu=0.92,Vmaxpu=1.5,model=8,zipv=[0.5,0,0.5,1,0,0,0],daily=COM1_4,status=variable
new load.3000113185M1 bus1=RML1050357949.1.2.3.0,Phases=3,kv=0.22,kW=0.12826,pf=0.92,Vminpu=0.92,Vmaxpu=1.5,model=8,zipv=[0.5,0,0.5,1,0,0,0],daily=COM1_4,status=variable
new load.3000113186M1 bus1=RML1050357949.1.2.3.0,Phases=3,kv=0.22,kW=0.05246,pf=0.92,Vminpu=0.92,Vmaxpu=1.5,model=8,zipv=[0.5,0,0.5,1,0,0,0],daily=COM1_4,status=variable
new load.3000113187M1 bus1=RML1050357949.1.2.3.0,Phases=3,kv=0.22,kW=0.2604,pf=0.92,Vminpu=0.92,Vmaxpu=1.5,model=8,zipv=[0.5,0,0.5,1,0,0,0],daily=COM1_4,status=variable
new load.3000113190M1 bus1=RML1050357949.1.2.3.0,Phases=3,kv=0.22,kW=0.39254,pf=0.92,Vminpu=0.92,Vmaxpu=1.5,model=8,zipv=[0.5,0,0.5,1,0,0,0],daily=COM1_4,status=variable
new load.3000113191M1 bus1=RML1050357949.1.2.3.0,Phases=3,kv=0.22,kW=0.00582,pf=0.92,Vminpu=0.92,Vmaxpu=1.5,model=8,zipv=[0.5,0,0.5,1,0,0,0],daily=COM1_4,status=variable
new load.3000113192M1 bus1=RML1050357949.1.2.3.0,Phases=3,kv=0.22,kW=0.89584,pf=0.92,Vminpu=0.92,Vmaxpu=1.5,model=8,zipv=[0.5,0,0.5,1,0,0,0],daily=COM2_2,status=variable
new load.3000113195M1 bus1=RML1050357949.1.2.3.0,Phases=3,kv=0.22,kW=0.3906,pf=0.92,Vminpu=0.92,Vmaxpu=1.5,model=8,zipv=[0.5,0,0.5,1,0,0,0],daily=COM1_4,status=variable
new load.3000113197M1 bus1=RML1050357949.1.2.3.0,Phases=3,kv=0.22,kW=0.10882,pf=0.92,Vminpu=0.92,Vmaxpu=1.5,model=8,zipv=[0.5,0,0.5,1,0,0,0],daily=COM1_4,status=variable
new load.3000113199M1 bus1=RML1050357949.1.2.3.0,Phases=3,kv=0.22,kW=0.02138,pf=0.92,Vminpu=0.92,Vmaxpu=1.5,model=8,zipv=[0.5,0,0.5,1,0,0,0],daily=COM1_4,status=variable
new load.3000113200M1 bus1=RML1050357949.1.2.3.0,Phases=3,kv=0.22,kW=0.06608,pf=0.92,Vminpu=0.92,Vmaxpu=1.5,model=8,zipv=[0.5,0,0.5,1,0,0,0],daily=COM1_4,status=variable
new load.3000113201M1 bus1=RML1050357949.1.2.3.0,Phases=3,kv=0.22,kW=0.03886,pf=0.92,Vminpu=0.92,Vmaxpu=1.5,model=8,zipv=[0.5,0,0.5,1,0,0,0],daily=COM1_4,status=variable
new load.3000113202M1 bus1=RML1050357949.1.2.3.0,Phases=3,kv=0.22,kW=0.06024,pf=0.92,Vminpu=0.92,Vmaxpu=1.5,model=8,zipv=[0.5,0,0.5,1,0,0,0],daily=COM1_4,status=variable
new load.3000113205M1 bus1=RML1050357949.1.2.3.0,Phases=3,kv=0.22,kW=0.03886,pf=0.92,Vminpu=0.92,Vmaxpu=1.5,model=8,zipv=[0.5,0,0.5,1,0,0,0],daily=COM1_4,status=variable
new load.3000113207M1 bus1=RML1050357949.1.2.3.0,Phases=3,kv=0.22,kW=0.7987,pf=0.92,Vminpu=0.92,Vmaxpu=1.5,model=8,zipv=[0.5,0,0.5,1,0,0,0],daily=COM1_4,status=variable
new load.3000113208M1 bus1=RML1050357949.1.2.3.0,Phases=3,kv=0.22,kW=4.37844,pf=0.92,Vminpu=0.92,Vmaxpu=1.5,model=8,zipv=[0.5,0,0.5,1,0,0,0],daily=COM3_2,status=variable
new load.3000113209M1 bus1=RML1050357949.1.2.3.0,Phases=3,kv=0.22,kW=0.07774,pf=0.92,Vminpu=0.92,Vmaxpu=1.5,model=8,zipv=[0.5,0,0.5,1,0,0,0],daily=COM1_4,status=variable
new load.3000113210M1 bus1=RML1050357949.1.2.3.0,Phases=3,kv=0.22,kW=0.20404,pf=0.92,Vminpu=0.92,Vmaxpu=1.5,model=8,zipv=[0.5,0,0.5,1,0,0,0],daily=COM1_4,status=variable
new load.3000113213M1 bus1=RML1050357949.1.2.3.0,Phases=3,kv=0.22,kW=0.16324,pf=0.92,Vminpu=0.92,Vmaxpu=1.5,model=8,zipv=[0.5,0,0.5,1,0,0,0],daily=COM1_4,status=variable
new load.3000113215M1 bus1=RML1050357949.1.2.3.0,Phases=3,kv=0.22,kW=0.1302,pf=0.92,Vminpu=0.92,Vmaxpu=1.5,model=8,zipv=[0.5,0,0.5,1,0,0,0],daily=COM1_4,status=variable
new load.3000113216M1 bus1=RML1050357949.1.2.3.0,Phases=3,kv=0.22,kW=0.274,pf=0.92,Vminpu=0.92,Vmaxpu=1.5,model=8,zipv=[0.5,0,0.5,1,0,0,0],daily=COM1_4,status=variable
new load.3000113217M1 bus1=RML1050357949.1.2.3.0,Phases=3,kv=0.22,kW=0.07384,pf=0.92,Vminpu=0.92,Vmaxpu=1.5,model=8,zipv=[0.5,0,0.5,1,0,0,0],daily=COM1_4,status=variable
new load.3000113218M1 bus1=RML1050357949.1.2.3.0,Phases=3,kv=0.22,kW=0.18462,pf=0.92,Vminpu=0.92,Vmaxpu=1.5,model=8,zipv=[0.5,0,0.5,1,0,0,0],daily=COM1_4,status=variable
new load.3000113219M1 bus1=RML1050357949.1.2.3.0,Phases=3,kv=0.22,kW=0.20016,pf=0.92,Vminpu=0.92,Vmaxpu=1.5,model=8,zipv=[0.5,0,0.5,1,0,0,0],daily=COM1_4,status=variable
new load.3000113220M1 bus1=RML1050357949.1.2.3.0,Phases=3,kv=0.22,kW=0.4489,pf=0.92,Vminpu=0.92,Vmaxpu=1.5,model=8,zipv=[0.5,0,0.5,1,0,0,0],daily=COM1_4,status=variable
new load.3000113221M1 bus1=RML1050357949.1.2.3.0,Phases=3,kv=0.22,kW=0.14186,pf=0.92,Vminpu=0.92,Vmaxpu=1.5,model=8,zipv=[0.5,0,0.5,1,0,0,0],daily=COM1_4,status=variable
new load.3000113222M1 bus1=RML1050357949.1.2.3.0,Phases=3,kv=0.22,kW=3.29928,pf=0.92,Vminpu=0.92,Vmaxpu=1.5,model=8,zipv=[0.5,0,0.5,1,0,0,0],daily=COM3_2,status=variable
new load.3000113223M1 bus1=RML1050357949.1.2.3.0,Phases=3,kv=0.22,kW=0.02138,pf=0.92,Vminpu=0.92,Vmaxpu=1.5,model=8,zipv=[0.5,0,0.5,1,0,0,0],daily=COM1_4,status=variable
new load.3000113224M1 bus1=RML1050357949.1.2.3.0,Phases=3,kv=0.22,kW=0.0447,pf=0.92,Vminpu=0.92,Vmaxpu=1.5,model=8,zipv=[0.5,0,0.5,1,0,0,0],daily=COM1_4,status=variable
new load.3000113225M1 bus1=RML1050357949.1.2.3.0,Phases=3,kv=0.22,kW=0.00972,pf=0.92,Vminpu=0.92,Vmaxpu=1.5,model=8,zipv=[0.5,0,0.5,1,0,0,0],daily=COM1_4,status=variable
new load.3000113226M1 bus1=RML1050357949.1.2.3.0,Phases=3,kv=0.22,kW=0.05442,pf=0.92,Vminpu=0.92,Vmaxpu=1.5,model=8,zipv=[0.5,0,0.5,1,0,0,0],daily=COM1_4,status=variable
new load.3000113228M1 bus1=RML1050357949.1.2.3.0,Phases=3,kv=0.22,kW=1.74236,pf=0.92,Vminpu=0.92,Vmaxpu=1.5,model=8,zipv=[0.5,0,0.5,1,0,0,0],daily=COM3_2,status=variable
new load.3000113233M1 bus1=RML1050355758.1.2.3.0,Phases=3,kv=0.22,kW=1.36316,pf=0.92,Vminpu=0.92,Vmaxpu=1.5,model=8,zipv=[0.5,0,0.5,1,0,0,0],daily=COM2_2,status=variable
new load.3000113239M1 bus1=RML1050355751.1.2.3.0,Phases=3,kv=0.22,kW=5.9434,pf=0.92,Vminpu=0.92,Vmaxpu=1.5,model=8,zipv=[0.5,0,0.5,1,0,0,0],daily=IND4_1,status=variable
new load.3000113240M1 bus1=RML1050355772.3.0,Phases=1,kv=0.127,kW=0.64324,pf=0.92,Vminpu=0.92,Vmaxpu=1.5,model=8,zipv=[0.5,0,0.5,1,0,0,0],daily=COM1_4,status=variable
new load.3000113242M1 bus1=RML1050355744.1.2.3.0,Phases=3,kv=0.22,kW=2.54086,pf=0.92,Vminpu=0.92,Vmaxpu=1.5,model=8,zipv=[0.5,0,0.5,1,0,0,0],daily=COM3_2,status=variable
new load.3000113243M1 bus1=RML1050355723.1.3.0,Phases=2,kv=0.22,kW=0.85706,pf=0.92,Vminpu=0.92,Vmaxpu=1.5,model=8,zipv=[0.5,0,0.5,1,0,0,0],daily=COM2_2,status=variable
new load.3000113244M1 bus1=RML1050355737.2.3.0,Phases=2,kv=0.22,kW=2.6862,pf=0.92,Vminpu=0.92,Vmaxpu=1.5,model=8,zipv=[0.5,0,0.5,1,0,0,0],daily=COM3_2,status=variable
new load.3000113245M1 bus1=RML1050355730.1.2.3.0,Phases=3,kv=0.22,kW=1.8157,pf=0.92,Vminpu=0.92,Vmaxpu=1.5,model=8,zipv=[0.5,0,0.5,1,0,0,0],daily=COM2_2,status=variable
...
